Circuit: * Z:\home\sur\studia\sem2\warstwa_fizyczna\mostek\simulation\mostek.asc

Direct Newton iteration for .op point succeeded.

Date: Fri May 29 16:54:52 2009
Total elapsed time: 0.148 seconds.

tnom = 27
temp = 27
method = trap
totiter = 3
traniter = 0
tranpoints = 0
accept = 0
rejected = 0
matrix size = 5
fillins = 0
solver = Normal
Matrix Compiler1: 114 bytes object code size
Matrix Compiler2: 301 bytes object code size

